Last login: Wed Jun  1 00:31:40 on ttys000
(base) Macs-MacBook-Pro:~ mac$ conda create -n MITgcm
Collecting package metadata (current_repodata.json): done
Solving environment: done


==> WARNING: A newer version of conda exists. <==
  current version: 4.12.0
  latest version: 4.13.0

Please update conda by running

    $ conda update -n base -c defaults conda



## Package Plan ##

  environment location: /opt/anaconda3/envs/MITgcm



Proceed ([y]/n)? y

Preparing transaction: done
Verifying transaction: done
Executing transaction: done
#
# To activate this environment, use
#
#     $ conda activate MITgcm
#
# To deactivate an active environment, use
#
#     $ conda deactivate

(base) Macs-MacBook-Pro:~ mac$ conda activate MITgcm
(MITgcm) Macs-MacBook-Pro:~ mac$ git clone https://github.com/MITgcm/MITgcm.git
Cloning into 'MITgcm'...
remote: Enumerating objects: 147868, done.
remote: Counting objects: 100% (2308/2308), done.
remote: Compressing objects: 100% (1288/1288), done.
remote: Total 147868 (delta 1318), reused 1629 (delta 1008), pack-reused 145560
Receiving objects: 100% (147868/147868), 356.93 MiB | 2.31 MiB/s, done.
Resolving deltas: 100% (112280/112280), done.
Checking out files: 100% (6432/6432), done.
(MITgcm) Macs-MacBook-Pro:~ mac$ cd MITgcm/verification/tutorial_held_suarez_cs/
(MITgcm) Macs-MacBook-Pro:tutorial_held_suarez_cs mac$ python input/data
  File "input/data", line 6
    &PARM01
    ^
IndentationError: unexpected indent
(MITgcm) Macs-MacBook-Pro:tutorial_held_suarez_cs mac$ cd input/
(MITgcm) Macs-MacBook-Pro:input mac$ data
-bash: data: command not found
(MITgcm) Macs-MacBook-Pro:input mac$ python data
  File "data", line 6
    &PARM01
    ^
IndentationError: unexpected indent
(MITgcm) Macs-MacBook-Pro:input mac$ cd
(MITgcm) Macs-MacBook-Pro:~ mac$ cd verification/exp2/build
-bash: cd: verification/exp2/build: No such file or directory
(MITgcm) Macs-MacBook-Pro:~ mac$ cd MITgcm/verification/exp2/build
(MITgcm) Macs-MacBook-Pro:build mac$ ../../../tools/genmake2 -mods ../code -optfile «/PATH/TO/OPTFILE»

GENMAKE :

A program for GENerating MAKEfiles for the MITgcm project.
   For a quick list of options, use "genmake2 -h"
or for more detail see the documentation, section "Building the model"
   (under "Getting Started") at:  https://mitgcm.readthedocs.io/

===  Processing options files and arguments  ===
  getting local config information:  none found
Warning: ROOTDIR was not specified ; try using a local copy of MITgcm found at "../../.."
  getting OPTFILE information:
Error: can't read OPTFILE="«/PATH/TO/OPTFILE»"
(MITgcm) Macs-MacBook-Pro:build mac$ ../../../tools/genmake2 -mods ../code -optfile ../../../tools/build_options/darwin_amd64_gfortran 

GENMAKE :

A program for GENerating MAKEfiles for the MITgcm project.
   For a quick list of options, use "genmake2 -h"
or for more detail see the documentation, section "Building the model"
   (under "Getting Started") at:  https://mitgcm.readthedocs.io/

===  Processing options files and arguments  ===
  getting local config information:  none found
Warning: ROOTDIR was not specified ; try using a local copy of MITgcm found at "../../.."
  getting OPTFILE information:
    using OPTFILE="../../../tools/build_options/darwin_amd64_gfortran"
../../../tools/build_options/darwin_amd64_gfortran: line 64: gfortran: command not found
    un-recognized Compiler-version '' ; ignored (-> set to 0)
../../../tools/build_options/darwin_amd64_gfortran: line 118: nf-config: command not found
  getting AD_OPTFILE information:
    using AD_OPTFILE="../../../tools/adjoint_options/adjoint_default"
  check Fortran Compiler...  fail to compile  (set FC_CHECK=0/5)
  check makedepend (local: 0, system: 0, 0)

===  Checking system libraries  ===
  Do we have the system() command using gfortran...  no
  Do we have the fdate() command using gfortran...  no
  Do we have the etime() command using gfortran...  no
  Can we call simple C routines (here, "cloc()") using gfortran...  no
  Can we unlimit the stack size using gfortran...  no
  Can we register a signal handler using gfortran...  no
  Can we use stat() through C calls...  no
  Can we create NetCDF-enabled binaries...  no
    skip check for LAPACK Libs
  Can we call FLUSH intrinsic subroutine...  no

===  Setting defaults  ===
  Adding MODS directories: ../code 
  Making source files in eesupp from templates
  Making source files in pkg/exch2 from templates
  Making source files in pkg/regrid from templates

===  Determining package settings  ===
  getting package dependency info from  ../../../pkg/pkg_depend
  getting package groups info from      ../../../pkg/pkg_groups
  checking list of packages to compile:
    using PKG_LIST="../code/packages.conf"
    before group expansion packages are: gfd cd_code
    replacing "gfd" with:  mom_common mom_fluxform mom_vecinv generic_advdiff debug mdsio rw monitor
    after group expansion packages are:  mom_common mom_fluxform mom_vecinv generic_advdiff debug mdsio rw monitor cd_code
  applying DISABLE settings
  applying ENABLE settings
    packages are:  cd_code debug generic_advdiff mdsio mom_common mom_fluxform mom_vecinv monitor rw
  applying package dependency rules
    packages are:  cd_code debug generic_advdiff mdsio mom_common mom_fluxform mom_vecinv monitor rw
  Adding STANDARDDIRS='eesupp model'
  Searching for *OPTIONS.h files in order to warn about the presence
    of "#define "-type statements that are no longer allowed:
    found CPP_OPTIONS="../code/CPP_OPTIONS.h"
    found CPP_EEOPTIONS="../../../eesupp/inc/CPP_EEOPTIONS.h"
  Creating the list of files for the adjoint compiler.

===  Creating the Makefile  ===
  setting INCLUDES
  Determining the list of source and include files
  Writing makefile: Makefile
  Add the source list for AD code generation
  Making list of "exceptions" that need ".p" files
  Making list of NOOPTFILES
  Add rules for links
  Adding makedepend marker

===  Done  ===
Warning: FORTRAN compiler test failed (please see 'genmake.log')
Warning: 'Makefile' might be unusable (check your optfile)
(MITgcm) Macs-MacBook-Pro:build mac$ ls
AD_CONFIG.h		Makefile.bak		genmake.log
Makefile		PACKAGES_CONFIG.h
(MITgcm) Macs-MacBook-Pro:build mac$ ls ../
README		code		input.rigidLid	run
build		input		results
(MITgcm) Macs-MacBook-Pro:build mac$ less genmake.log
(MITgcm) Macs-MacBook-Pro:build mac$ which gfortran
(MITgcm) Macs-MacBook-Pro:build mac$ sudo rm -r /usr/local/gfortran /usr/local/bin/gfortran
Password:
(MITgcm) Macs-MacBook-Pro:build mac$ which gfortran
(MITgcm) Macs-MacBook-Pro:build mac$ which gfortran
/usr/local/bin/gfortran
(MITgcm) Macs-MacBook-Pro:build mac$ ../../../tools/genmake2 -mods ../code -optfile ../../../tools/build_options/darwin_amd64_gfortran 

GENMAKE :

A program for GENerating MAKEfiles for the MITgcm project.
   For a quick list of options, use "genmake2 -h"
or for more detail see the documentation, section "Building the model"
   (under "Getting Started") at:  https://mitgcm.readthedocs.io/

===  Processing options files and arguments  ===
  getting local config information:  none found
Warning: ROOTDIR was not specified ; try using a local copy of MITgcm found at "../../.."
  getting OPTFILE information:
    using OPTFILE="../../../tools/build_options/darwin_amd64_gfortran"
    get Compiler-version: '6'
../../../tools/build_options/darwin_amd64_gfortran: line 118: nf-config: command not found
  getting AD_OPTFILE information:
    using AD_OPTFILE="../../../tools/adjoint_options/adjoint_default"
  check Fortran Compiler...  pass  (set FC_CHECK=5/5)
  check makedepend (local: 0, system: 0, 0)

===  Checking system libraries  ===
  Do we have the system() command using gfortran...  yes
  Do we have the fdate() command using gfortran...  yes
  Do we have the etime() command using gfortran... c,r: yes (SbR)
  Can we call simple C routines (here, "cloc()") using gfortran...  yes
  Can we unlimit the stack size using gfortran...  yes
  Can we register a signal handler using gfortran...  no
  Can we use stat() through C calls...  yes
  Can we create NetCDF-enabled binaries...  no
    skip check for LAPACK Libs
  Can we call FLUSH intrinsic subroutine...  yes

===  Setting defaults  ===
  Adding MODS directories: ../code 
  Making source files in eesupp from templates
  Making source files in pkg/exch2 from templates
  Making source files in pkg/regrid from templates

===  Determining package settings  ===
  getting package dependency info from  ../../../pkg/pkg_depend
  getting package groups info from      ../../../pkg/pkg_groups
  checking list of packages to compile:
    using PKG_LIST="../code/packages.conf"
    before group expansion packages are: gfd cd_code
    replacing "gfd" with:  mom_common mom_fluxform mom_vecinv generic_advdiff debug mdsio rw monitor
    after group expansion packages are:  mom_common mom_fluxform mom_vecinv generic_advdiff debug mdsio rw monitor cd_code
  applying DISABLE settings
  applying ENABLE settings
    packages are:  cd_code debug generic_advdiff mdsio mom_common mom_fluxform mom_vecinv monitor rw
  applying package dependency rules
    packages are:  cd_code debug generic_advdiff mdsio mom_common mom_fluxform mom_vecinv monitor rw
  Adding STANDARDDIRS='eesupp model'
  Searching for *OPTIONS.h files in order to warn about the presence
    of "#define "-type statements that are no longer allowed:
    found CPP_OPTIONS="../code/CPP_OPTIONS.h"
    found CPP_EEOPTIONS="../../../eesupp/inc/CPP_EEOPTIONS.h"
  Creating the list of files for the adjoint compiler.

===  Creating the Makefile  ===
  setting INCLUDES
  Determining the list of source and include files
  Writing makefile: Makefile
  Add the source list for AD code generation
  Making list of "exceptions" that need ".p" files
  Making list of NOOPTFILES
  Add rules for links
  Adding makedepend marker

===  Done  ===
  original 'Makefile' generated successfully
=> next steps:
  > make depend
  > make       (<-- to generate executable)
(MITgcm) Macs-MacBook-Pro:build mac$ make depend
if [ ! -L cd_code_ini_vars.F ]; then ln -s ../../../pkg/cd_code/cd_code_ini_vars.F cd_code_ini_vars.F; fi
if [ ! -L cd_code_init_fixed.F ]; then ln -s ../../../pkg/cd_code/cd_code_init_fixed.F cd_code_init_fixed.F; fi
if [ ! -L cd_code_read_pickup.F ]; then ln -s ../../../pkg/cd_code/cd_code_read_pickup.F cd_code_read_pickup.F; fi
if [ ! -L cd_code_scheme.F ]; then ln -s ../../../pkg/cd_code/cd_code_scheme.F cd_code_scheme.F; fi
if [ ! -L cd_code_write_pickup.F ]; then ln -s ../../../pkg/cd_code/cd_code_write_pickup.F cd_code_write_pickup.F; fi
if [ ! -L chksum_tiled.F ]; then ln -s ../../../pkg/debug/chksum_tiled.F chksum_tiled.F; fi
if [ ! -L debug_call.F ]; then ln -s ../../../pkg/debug/debug_call.F debug_call.F; fi
if [ ! -L debug_cs_corner_uv.F ]; then ln -s ../../../pkg/debug/debug_cs_corner_uv.F debug_cs_corner_uv.F; fi
if [ ! -L debug_enter.F ]; then ln -s ../../../pkg/debug/debug_enter.F debug_enter.F; fi
if [ ! -L debug_fld_stats_rl.F ]; then ln -s ../../../pkg/debug/debug_fld_stats_rl.F debug_fld_stats_rl.F; fi
if [ ! -L debug_fld_stats_rs.F ]; then ln -s ../../../pkg/debug/debug_fld_stats_rs.F debug_fld_stats_rs.F; fi
if [ ! -L debug_leave.F ]; then ln -s ../../../pkg/debug/debug_leave.F debug_leave.F; fi
if [ ! -L debug_msg.F ]; then ln -s ../../../pkg/debug/debug_msg.F debug_msg.F; fi
if [ ! -L debug_stats_rl.F ]; then ln -s ../../../pkg/debug/debug_stats_rl.F debug_stats_rl.F; fi
if [ ! -L debug_stats_rs.F ]; then ln -s ../../../pkg/debug/debug_stats_rs.F debug_stats_rs.F; fi
if [ ! -L fill_in_corners_rl.F ]; then ln -s ../../../pkg/debug/fill_in_corners_rl.F fill_in_corners_rl.F; fi
if [ ! -L write_fullarray_rl.F ]; then ln -s ../../../pkg/debug/write_fullarray_rl.F write_fullarray_rl.F; fi
if [ ! -L write_fullarray_rs.F ]; then ln -s ../../../pkg/debug/write_fullarray_rs.F write_fullarray_rs.F; fi
if [ ! -L gad_advection.F ]; then ln -s ../../../pkg/generic_advdiff/gad_advection.F gad_advection.F; fi
if [ ! -L gad_advscheme.F ]; then ln -s ../../../pkg/generic_advdiff/gad_advscheme.F gad_advscheme.F; fi
if [ ! -L gad_biharm_r.F ]; then ln -s ../../../pkg/generic_advdiff/gad_biharm_r.F gad_biharm_r.F; fi
if [ ! -L gad_biharm_x.F ]; then ln -s ../../../pkg/generic_advdiff/gad_biharm_x.F gad_biharm_x.F; fi
if [ ! -L gad_biharm_y.F ]; then ln -s ../../../pkg/generic_advdiff/gad_biharm_y.F gad_biharm_y.F; fi
if [ ! -L gad_c2_adv_r.F ]; then ln -s ../../../pkg/generic_advdiff/gad_c2_adv_r.F gad_c2_adv_r.F; fi
if [ ! -L gad_c2_adv_x.F ]; then ln -s ../../../pkg/generic_advdiff/gad_c2_adv_x.F gad_c2_adv_x.F; fi
if [ ! -L gad_c2_adv_y.F ]; then ln -s ../../../pkg/generic_advdiff/gad_c2_adv_y.F gad_c2_adv_y.F; fi
if [ ! -L gad_c2_impl_r.F ]; then ln -s ../../../pkg/generic_advdiff/gad_c2_impl_r.F gad_c2_impl_r.F; fi
if [ ! -L gad_c4_adv_r.F ]; then ln -s ../../../pkg/generic_advdiff/gad_c4_adv_r.F gad_c4_adv_r.F; fi
if [ ! -L gad_c4_adv_x.F ]; then ln -s ../../../pkg/generic_advdiff/gad_c4_adv_x.F gad_c4_adv_x.F; fi
if [ ! -L gad_c4_adv_y.F ]; then ln -s ../../../pkg/generic_advdiff/gad_c4_adv_y.F gad_c4_adv_y.F; fi
if [ ! -L gad_calc_rhs.F ]; then ln -s ../../../pkg/generic_advdiff/gad_calc_rhs.F gad_calc_rhs.F; fi
if [ ! -L gad_check.F ]; then ln -s ../../../pkg/generic_advdiff/gad_check.F gad_check.F; fi
if [ ! -L gad_del2.F ]; then ln -s ../../../pkg/generic_advdiff/gad_del2.F gad_del2.F; fi
if [ ! -L gad_diagnostics_init.F ]; then ln -s ../../../pkg/generic_advdiff/gad_diagnostics_init.F gad_diagnostics_init.F; fi
if [ ! -L gad_diagnostics_state.F ]; then ln -s ../../../pkg/generic_advdiff/gad_diagnostics_state.F gad_diagnostics_state.F; fi
if [ ! -L gad_diff_r.F ]; then ln -s ../../../pkg/generic_advdiff/gad_diff_r.F gad_diff_r.F; fi
if [ ! -L gad_diff_x.F ]; then ln -s ../../../pkg/generic_advdiff/gad_diff_x.F gad_diff_x.F; fi
if [ ! -L gad_diff_y.F ]; then ln -s ../../../pkg/generic_advdiff/gad_diff_y.F gad_diff_y.F; fi
if [ ! -L gad_dst2u1_adv_r.F ]; then ln -s ../../../pkg/generic_advdiff/gad_dst2u1_adv_r.F gad_dst2u1_adv_r.F; fi
if [ ! -L gad_dst2u1_adv_x.F ]; then ln -s ../../../pkg/generic_advdiff/gad_dst2u1_adv_x.F gad_dst2u1_adv_x.F; fi
if [ ! -L gad_dst2u1_adv_y.F ]; then ln -s ../../../pkg/generic_advdiff/gad_dst2u1_adv_y.F gad_dst2u1_adv_y.F; fi
if [ ! -L gad_dst2u1_impl_r.F ]; then ln -s ../../../pkg/generic_advdiff/gad_dst2u1_impl_r.F gad_dst2u1_impl_r.F; fi
if [ ! -L gad_dst3_adv_r.F ]; then ln -s ../../../pkg/generic_advdiff/gad_dst3_adv_r.F gad_dst3_adv_r.F; fi
if [ ! -L gad_dst3_adv_x.F ]; then ln -s ../../../pkg/generic_advdiff/gad_dst3_adv_x.F gad_dst3_adv_x.F; fi
if [ ! -L gad_dst3_adv_y.F ]; then ln -s ../../../pkg/generic_advdiff/gad_dst3_adv_y.F gad_dst3_adv_y.F; fi
if [ ! -L gad_dst3fl_adv_r.F ]; then ln -s ../../../pkg/generic_advdiff/gad_dst3fl_adv_r.F gad_dst3fl_adv_r.F; fi
if [ ! -L gad_dst3fl_adv_x.F ]; then ln -s ../../../pkg/generic_advdiff/gad_dst3fl_adv_x.F gad_dst3fl_adv_x.F; fi
if [ ! -L gad_dst3fl_adv_y.F ]; then ln -s ../../../pkg/generic_advdiff/gad_dst3fl_adv_y.F gad_dst3fl_adv_y.F; fi
if [ ! -L gad_dst3fl_impl_r.F ]; then ln -s ../../../pkg/generic_advdiff/gad_dst3fl_impl_r.F gad_dst3fl_impl_r.F; fi
if [ ! -L gad_exch_som.F ]; then ln -s ../../../pkg/generic_advdiff/gad_exch_som.F gad_exch_som.F; fi
if [ ! -L gad_fluxlimit_adv_r.F ]; then ln -s ../../../pkg/generic_advdiff/gad_fluxlimit_adv_r.F gad_fluxlimit_adv_r.F; fi
if [ ! -L gad_fluxlimit_adv_x.F ]; then ln -s ../../../pkg/generic_advdiff/gad_fluxlimit_adv_x.F gad_fluxlimit_adv_x.F; fi
if [ ! -L gad_fluxlimit_adv_y.F ]; then ln -s ../../../pkg/generic_advdiff/gad_fluxlimit_adv_y.F gad_fluxlimit_adv_y.F; fi
if [ ! -L gad_fluxlimit_impl_r.F ]; then ln -s ../../../pkg/generic_advdiff/gad_fluxlimit_impl_r.F gad_fluxlimit_impl_r.F; fi
if [ ! -L gad_grad_x.F ]; then ln -s ../../../pkg/generic_advdiff/gad_grad_x.F gad_grad_x.F; fi
if [ ! -L gad_grad_y.F ]; then ln -s ../../../pkg/generic_advdiff/gad_grad_y.F gad_grad_y.F; fi
if [ ! -L gad_implicit_r.F ]; then ln -s ../../../pkg/generic_advdiff/gad_implicit_r.F gad_implicit_r.F; fi
if [ ! -L gad_init_fixed.F ]; then ln -s ../../../pkg/generic_advdiff/gad_init_fixed.F gad_init_fixed.F; fi
if [ ! -L gad_init_varia.F ]; then ln -s ../../../pkg/generic_advdiff/gad_init_varia.F gad_init_varia.F; fi
if [ ! -L gad_os7mp_adv_r.F ]; then ln -s ../../../pkg/generic_advdiff/gad_os7mp_adv_r.F gad_os7mp_adv_r.F; fi
if [ ! -L gad_os7mp_adv_x.F ]; then ln -s ../../../pkg/generic_advdiff/gad_os7mp_adv_x.F gad_os7mp_adv_x.F; fi
if [ ! -L gad_os7mp_adv_y.F ]; then ln -s ../../../pkg/generic_advdiff/gad_os7mp_adv_y.F gad_os7mp_adv_y.F; fi
if [ ! -L gad_osc_hat_r.F ]; then ln -s ../../../pkg/generic_advdiff/gad_osc_hat_r.F gad_osc_hat_r.F; fi
if [ ! -L gad_osc_hat_x.F ]; then ln -s ../../../pkg/generic_advdiff/gad_osc_hat_x.F gad_osc_hat_x.F; fi
if [ ! -L gad_osc_hat_y.F ]; then ln -s ../../../pkg/generic_advdiff/gad_osc_hat_y.F gad_osc_hat_y.F; fi
if [ ! -L gad_osc_mul_r.F ]; then ln -s ../../../pkg/generic_advdiff/gad_osc_mul_r.F gad_osc_mul_r.F; fi
if [ ! -L gad_osc_mul_x.F ]; then ln -s ../../../pkg/generic_advdiff/gad_osc_mul_x.F gad_osc_mul_x.F; fi
if [ ! -L gad_osc_mul_y.F ]; then ln -s ../../../pkg/generic_advdiff/gad_osc_mul_y.F gad_osc_mul_y.F; fi
if [ ! -L gad_plm_fun.F ]; then ln -s ../../../pkg/generic_advdiff/gad_plm_fun.F gad_plm_fun.F; fi
if [ ! -L gad_ppm_adv_r.F ]; then ln -s ../../../pkg/generic_advdiff/gad_ppm_adv_r.F gad_ppm_adv_r.F; fi
if [ ! -L gad_ppm_adv_x.F ]; then ln -s ../../../pkg/generic_advdiff/gad_ppm_adv_x.F gad_ppm_adv_x.F; fi
if [ ! -L gad_ppm_adv_y.F ]; then ln -s ../../../pkg/generic_advdiff/gad_ppm_adv_y.F gad_ppm_adv_y.F; fi
if [ ! -L gad_ppm_flx_r.F ]; then ln -s ../../../pkg/generic_advdiff/gad_ppm_flx_r.F gad_ppm_flx_r.F; fi
if [ ! -L gad_ppm_flx_x.F ]; then ln -s ../../../pkg/generic_advdiff/gad_ppm_flx_x.F gad_ppm_flx_x.F; fi
if [ ! -L gad_ppm_flx_y.F ]; then ln -s ../../../pkg/generic_advdiff/gad_ppm_flx_y.F gad_ppm_flx_y.F; fi
if [ ! -L gad_ppm_fun.F ]; then ln -s ../../../pkg/generic_advdiff/gad_ppm_fun.F gad_ppm_fun.F; fi
if [ ! -L gad_ppm_hat_r.F ]; then ln -s ../../../pkg/generic_advdiff/gad_ppm_hat_r.F gad_ppm_hat_r.F; fi
if [ ! -L gad_ppm_hat_x.F ]; then ln -s ../../../pkg/generic_advdiff/gad_ppm_hat_x.F gad_ppm_hat_x.F; fi
if [ ! -L gad_ppm_hat_y.F ]; then ln -s ../../../pkg/generic_advdiff/gad_ppm_hat_y.F gad_ppm_hat_y.F; fi
if [ ! -L gad_ppm_p3e_r.F ]; then ln -s ../../../pkg/generic_advdiff/gad_ppm_p3e_r.F gad_ppm_p3e_r.F; fi
if [ ! -L gad_ppm_p3e_x.F ]; then ln -s ../../../pkg/generic_advdiff/gad_ppm_p3e_x.F gad_ppm_p3e_x.F; fi
if [ ! -L gad_ppm_p3e_y.F ]; then ln -s ../../../pkg/generic_advdiff/gad_ppm_p3e_y.F gad_ppm_p3e_y.F; fi
if [ ! -L gad_pqm_adv_r.F ]; then ln -s ../../../pkg/generic_advdiff/gad_pqm_adv_r.F gad_pqm_adv_r.F; fi
if [ ! -L gad_pqm_adv_x.F ]; then ln -s ../../../pkg/generic_advdiff/gad_pqm_adv_x.F gad_pqm_adv_x.F; fi
if [ ! -L gad_pqm_adv_y.F ]; then ln -s ../../../pkg/generic_advdiff/gad_pqm_adv_y.F gad_pqm_adv_y.F; fi
if [ ! -L gad_pqm_flx_r.F ]; then ln -s ../../../pkg/generic_advdiff/gad_pqm_flx_r.F gad_pqm_flx_r.F; fi
if [ ! -L gad_pqm_flx_x.F ]; then ln -s ../../../pkg/generic_advdiff/gad_pqm_flx_x.F gad_pqm_flx_x.F; fi
if [ ! -L gad_pqm_flx_y.F ]; then ln -s ../../../pkg/generic_advdiff/gad_pqm_flx_y.F gad_pqm_flx_y.F; fi
if [ ! -L gad_pqm_fun.F ]; then ln -s ../../../pkg/generic_advdiff/gad_pqm_fun.F gad_pqm_fun.F; fi
if [ ! -L gad_pqm_hat_r.F ]; then ln -s ../../../pkg/generic_advdiff/gad_pqm_hat_r.F gad_pqm_hat_r.F; fi
if [ ! -L gad_pqm_hat_x.F ]; then ln -s ../../../pkg/generic_advdiff/gad_pqm_hat_x.F gad_pqm_hat_x.F; fi
if [ ! -L gad_pqm_hat_y.F ]; then ln -s ../../../pkg/generic_advdiff/gad_pqm_hat_y.F gad_pqm_hat_y.F; fi
if [ ! -L gad_pqm_p5e_r.F ]; then ln -s ../../../pkg/generic_advdiff/gad_pqm_p5e_r.F gad_pqm_p5e_r.F; fi
if [ ! -L gad_pqm_p5e_x.F ]; then ln -s ../../../pkg/generic_advdiff/gad_pqm_p5e_x.F gad_pqm_p5e_x.F; fi
if [ ! -L gad_pqm_p5e_y.F ]; then ln -s ../../../pkg/generic_advdiff/gad_pqm_p5e_y.F gad_pqm_p5e_y.F; fi
if [ ! -L gad_read_pickup.F ]; then ln -s ../../../pkg/generic_advdiff/gad_read_pickup.F gad_read_pickup.F; fi
if [ ! -L gad_som_adv_r.F ]; then ln -s ../../../pkg/generic_advdiff/gad_som_adv_r.F gad_som_adv_r.F; fi
if [ ! -L gad_som_adv_x.F ]; then ln -s ../../../pkg/generic_advdiff/gad_som_adv_x.F gad_som_adv_x.F; fi
if [ ! -L gad_som_adv_y.F ]; then ln -s ../../../pkg/generic_advdiff/gad_som_adv_y.F gad_som_adv_y.F; fi
if [ ! -L gad_som_advect.F ]; then ln -s ../../../pkg/generic_advdiff/gad_som_advect.F gad_som_advect.F; fi
if [ ! -L gad_som_exchanges.F ]; then ln -s ../../../pkg/generic_advdiff/gad_som_exchanges.F gad_som_exchanges.F; fi
if [ ! -L gad_som_fill_cs_corner.F ]; then ln -s ../../../pkg/generic_advdiff/gad_som_fill_cs_corner.F gad_som_fill_cs_corner.F; fi
if [ ! -L gad_som_lim_r.F ]; then ln -s ../../../pkg/generic_advdiff/gad_som_lim_r.F gad_som_lim_r.F; fi
if [ ! -L gad_som_prep_cs_corner.F ]; then ln -s ../../../pkg/generic_advdiff/gad_som_prep_cs_corner.F gad_som_prep_cs_corner.F; fi
if [ ! -L gad_u3_adv_r.F ]; then ln -s ../../../pkg/generic_advdiff/gad_u3_adv_r.F gad_u3_adv_r.F; fi
if [ ! -L gad_u3_adv_x.F ]; then ln -s ../../../pkg/generic_advdiff/gad_u3_adv_x.F gad_u3_adv_x.F; fi
if [ ! -L gad_u3_adv_y.F ]; then ln -s ../../../pkg/generic_advdiff/gad_u3_adv_y.F gad_u3_adv_y.F; fi
if [ ! -L gad_u3c4_impl_r.F ]; then ln -s ../../../pkg/generic_advdiff/gad_u3c4_impl_r.F gad_u3c4_impl_r.F; fi
if [ ! -L gad_write_pickup.F ]; then ln -s ../../../pkg/generic_advdiff/gad_write_pickup.F gad_write_pickup.F; fi
if [ ! -L salt_fill.F ]; then ln -s ../../../pkg/generic_advdiff/salt_fill.F salt_fill.F; fi
if [ ! -L mdsio_buffertorl.F ]; then ln -s ../../../pkg/mdsio/mdsio_buffertorl.F mdsio_buffertorl.F; fi
if [ ! -L mdsio_buffertors.F ]; then ln -s ../../../pkg/mdsio/mdsio_buffertors.F mdsio_buffertors.F; fi
if [ ! -L mdsio_check4file.F ]; then ln -s ../../../pkg/mdsio/mdsio_check4file.F mdsio_check4file.F; fi
if [ ! -L mdsio_facef_read.F ]; then ln -s ../../../pkg/mdsio/mdsio_facef_read.F mdsio_facef_read.F; fi
if [ ! -L mdsio_gl.F ]; then ln -s ../../../pkg/mdsio/mdsio_gl.F mdsio_gl.F; fi
if [ ! -L mdsio_gl_slice.F ]; then ln -s ../../../pkg/mdsio/mdsio_gl_slice.F mdsio_gl_slice.F; fi
if [ ! -L mdsio_pass_r4torl.F ]; then ln -s ../../../pkg/mdsio/mdsio_pass_r4torl.F mdsio_pass_r4torl.F; fi
if [ ! -L mdsio_pass_r4tors.F ]; then ln -s ../../../pkg/mdsio/mdsio_pass_r4tors.F mdsio_pass_r4tors.F; fi
if [ ! -L mdsio_pass_r8torl.F ]; then ln -s ../../../pkg/mdsio/mdsio_pass_r8torl.F mdsio_pass_r8torl.F; fi
if [ ! -L mdsio_pass_r8tors.F ]; then ln -s ../../../pkg/mdsio/mdsio_pass_r8tors.F mdsio_pass_r8tors.F; fi
if [ ! -L mdsio_rd_rec_rl.F ]; then ln -s ../../../pkg/mdsio/mdsio_rd_rec_rl.F mdsio_rd_rec_rl.F; fi
if [ ! -L mdsio_rd_rec_rs.F ]; then ln -s ../../../pkg/mdsio/mdsio_rd_rec_rs.F mdsio_rd_rec_rs.F; fi
if [ ! -L mdsio_read_field.F ]; then ln -s ../../../pkg/mdsio/mdsio_read_field.F mdsio_read_field.F; fi
if [ ! -L mdsio_read_meta.F ]; then ln -s ../../../pkg/mdsio/mdsio_read_meta.F mdsio_read_meta.F; fi
if [ ! -L mdsio_read_section.F ]; then ln -s ../../../pkg/mdsio/mdsio_read_section.F mdsio_read_section.F; fi
if [ ! -L mdsio_read_tape.F ]; then ln -s ../../../pkg/mdsio/mdsio_read_tape.F mdsio_read_tape.F; fi
if [ ! -L mdsio_read_whalos.F ]; then ln -s ../../../pkg/mdsio/mdsio_read_whalos.F mdsio_read_whalos.F; fi
if [ ! -L mdsio_readvec_loc.F ]; then ln -s ../../../pkg/mdsio/mdsio_readvec_loc.F mdsio_readvec_loc.F; fi
if [ ! -L mdsio_rw_field.F ]; then ln -s ../../../pkg/mdsio/mdsio_rw_field.F mdsio_rw_field.F; fi
if [ ! -L mdsio_rw_slice.F ]; then ln -s ../../../pkg/mdsio/mdsio_rw_slice.F mdsio_rw_slice.F; fi
if [ ! -L mdsio_seg4torl.F ]; then ln -s ../../../pkg/mdsio/mdsio_seg4torl.F mdsio_seg4torl.F; fi
if [ ! -L mdsio_seg4tors.F ]; then ln -s ../../../pkg/mdsio/mdsio_seg4tors.F mdsio_seg4tors.F; fi
if [ ! -L mdsio_seg8torl.F ]; then ln -s ../../../pkg/mdsio/mdsio_seg8torl.F mdsio_seg8torl.F; fi
if [ ! -L mdsio_seg8tors.F ]; then ln -s ../../../pkg/mdsio/mdsio_seg8tors.F mdsio_seg8tors.F; fi
if [ ! -L mdsio_segxtorx_2d.F ]; then ln -s ../../../pkg/mdsio/mdsio_segxtorx_2d.F mdsio_segxtorx_2d.F; fi
if [ ! -L mdsio_wr_metafiles.F ]; then ln -s ../../../pkg/mdsio/mdsio_wr_metafiles.F mdsio_wr_metafiles.F; fi
if [ ! -L mdsio_wr_rec_rl.F ]; then ln -s ../../../pkg/mdsio/mdsio_wr_rec_rl.F mdsio_wr_rec_rl.F; fi
if [ ! -L mdsio_wr_rec_rs.F ]; then ln -s ../../../pkg/mdsio/mdsio_wr_rec_rs.F mdsio_wr_rec_rs.F; fi
if [ ! -L mdsio_write_field.F ]; then ln -s ../../../pkg/mdsio/mdsio_write_field.F mdsio_write_field.F; fi
if [ ! -L mdsio_write_meta.F ]; then ln -s ../../../pkg/mdsio/mdsio_write_meta.F mdsio_write_meta.F; fi
if [ ! -L mdsio_write_section.F ]; then ln -s ../../../pkg/mdsio/mdsio_write_section.F mdsio_write_section.F; fi
if [ ! -L mdsio_write_tape.F ]; then ln -s ../../../pkg/mdsio/mdsio_write_tape.F mdsio_write_tape.F; fi
if [ ! -L mdsio_write_whalos.F ]; then ln -s ../../../pkg/mdsio/mdsio_write_whalos.F mdsio_write_whalos.F; fi
if [ ! -L mdsio_writelocal.F ]; then ln -s ../../../pkg/mdsio/mdsio_writelocal.F mdsio_writelocal.F; fi
if [ ! -L mdsio_writevec_loc.F ]; then ln -s ../../../pkg/mdsio/mdsio_writevec_loc.F mdsio_writevec_loc.F; fi
if [ ! -L mom_calc_3d_strain.F ]; then ln -s ../../../pkg/mom_common/mom_calc_3d_strain.F mom_calc_3d_strain.F; fi
if [ ! -L mom_calc_absvort3.F ]; then ln -s ../../../pkg/mom_common/mom_calc_absvort3.F mom_calc_absvort3.F; fi
if [ ! -L mom_calc_hdiv.F ]; then ln -s ../../../pkg/mom_common/mom_calc_hdiv.F mom_calc_hdiv.F; fi
if [ ! -L mom_calc_hfacz.F ]; then ln -s ../../../pkg/mom_common/mom_calc_hfacz.F mom_calc_hfacz.F; fi
if [ ! -L mom_calc_ke.F ]; then ln -s ../../../pkg/mom_common/mom_calc_ke.F mom_calc_ke.F; fi
if [ ! -L mom_calc_relvort3.F ]; then ln -s ../../../pkg/mom_common/mom_calc_relvort3.F mom_calc_relvort3.F; fi
if [ ! -L mom_calc_smag_3d.F ]; then ln -s ../../../pkg/mom_common/mom_calc_smag_3d.F mom_calc_smag_3d.F; fi
if [ ! -L mom_calc_strain.F ]; then ln -s ../../../pkg/mom_common/mom_calc_strain.F mom_calc_strain.F; fi
if [ ! -L mom_calc_tension.F ]; then ln -s ../../../pkg/mom_common/mom_calc_tension.F mom_calc_tension.F; fi
if [ ! -L mom_calc_visc.F ]; then ln -s ../../../pkg/mom_common/mom_calc_visc.F mom_calc_visc.F; fi
if [ ! -L mom_diagnostics_init.F ]; then ln -s ../../../pkg/mom_common/mom_diagnostics_init.F mom_diagnostics_init.F; fi
if [ ! -L mom_hdissip.F ]; then ln -s ../../../pkg/mom_common/mom_hdissip.F mom_hdissip.F; fi
if [ ! -L mom_init_fixed.F ]; then ln -s ../../../pkg/mom_common/mom_init_fixed.F mom_init_fixed.F; fi
if [ ! -L mom_quasihydrostatic.F ]; then ln -s ../../../pkg/mom_common/mom_quasihydrostatic.F mom_quasihydrostatic.F; fi
if [ ! -L mom_u_botdrag_coeff.F ]; then ln -s ../../../pkg/mom_common/mom_u_botdrag_coeff.F mom_u_botdrag_coeff.F; fi
if [ ! -L mom_u_coriolis_nh.F ]; then ln -s ../../../pkg/mom_common/mom_u_coriolis_nh.F mom_u_coriolis_nh.F; fi
if [ ! -L mom_u_implicit_r.F ]; then ln -s ../../../pkg/mom_common/mom_u_implicit_r.F mom_u_implicit_r.F; fi
if [ ! -L mom_u_metric_nh.F ]; then ln -s ../../../pkg/mom_common/mom_u_metric_nh.F mom_u_metric_nh.F; fi
if [ ! -L mom_u_rviscflux.F ]; then ln -s ../../../pkg/mom_common/mom_u_rviscflux.F mom_u_rviscflux.F; fi
if [ ! -L mom_u_sidedrag.F ]; then ln -s ../../../pkg/mom_common/mom_u_sidedrag.F mom_u_sidedrag.F; fi
if [ ! -L mom_uv_smag_3d.F ]; then ln -s ../../../pkg/mom_common/mom_uv_smag_3d.F mom_uv_smag_3d.F; fi
if [ ! -L mom_v_botdrag_coeff.F ]; then ln -s ../../../pkg/mom_common/mom_v_botdrag_coeff.F mom_v_botdrag_coeff.F; fi
if [ ! -L mom_v_coriolis_nh.F ]; then ln -s ../../../pkg/mom_common/mom_v_coriolis_nh.F mom_v_coriolis_nh.F; fi
if [ ! -L mom_v_implicit_r.F ]; then ln -s ../../../pkg/mom_common/mom_v_implicit_r.F mom_v_implicit_r.F; fi
if [ ! -L mom_v_metric_nh.F ]; then ln -s ../../../pkg/mom_common/mom_v_metric_nh.F mom_v_metric_nh.F; fi
if [ ! -L mom_v_rviscflux.F ]; then ln -s ../../../pkg/mom_common/mom_v_rviscflux.F mom_v_rviscflux.F; fi
if [ ! -L mom_v_sidedrag.F ]; then ln -s ../../../pkg/mom_common/mom_v_sidedrag.F mom_v_sidedrag.F; fi
if [ ! -L mom_visc_qgl_limit.F ]; then ln -s ../../../pkg/mom_common/mom_visc_qgl_limit.F mom_visc_qgl_limit.F; fi
if [ ! -L mom_visc_qgl_stretch.F ]; then ln -s ../../../pkg/mom_common/mom_visc_qgl_stretch.F mom_visc_qgl_stretch.F; fi
if [ ! -L mom_w_coriolis_nh.F ]; then ln -s ../../../pkg/mom_common/mom_w_coriolis_nh.F mom_w_coriolis_nh.F; fi
if [ ! -L mom_w_metric_nh.F ]; then ln -s ../../../pkg/mom_common/mom_w_metric_nh.F mom_w_metric_nh.F; fi
if [ ! -L mom_w_sidedrag.F ]; then ln -s ../../../pkg/mom_common/mom_w_sidedrag.F mom_w_sidedrag.F; fi
if [ ! -L mom_w_smag_3d.F ]; then ln -s ../../../pkg/mom_common/mom_w_smag_3d.F mom_w_smag_3d.F; fi
if [ ! -L mom_calc_rtrans.F ]; then ln -s ../../../pkg/mom_fluxform/mom_calc_rtrans.F mom_calc_rtrans.F; fi
if [ ! -L mom_fluxform.F ]; then ln -s ../../../pkg/mom_fluxform/mom_fluxform.F mom_fluxform.F; fi
if [ ! -L mom_u_adv_uu.F ]; then ln -s ../../../pkg/mom_fluxform/mom_u_adv_uu.F mom_u_adv_uu.F; fi
if [ ! -L mom_u_adv_vu.F ]; then ln -s ../../../pkg/mom_fluxform/mom_u_adv_vu.F mom_u_adv_vu.F; fi
if [ ! -L mom_u_adv_wu.F ]; then ln -s ../../../pkg/mom_fluxform/mom_u_adv_wu.F mom_u_adv_wu.F; fi
if [ ! -L mom_u_coriolis.F ]; then ln -s ../../../pkg/mom_fluxform/mom_u_coriolis.F mom_u_coriolis.F; fi
if [ ! -L mom_u_del2u.F ]; then ln -s ../../../pkg/mom_fluxform/mom_u_del2u.F mom_u_del2u.F; fi
if [ ! -L mom_u_metric_cylinder.F ]; then ln -s ../../../pkg/mom_fluxform/mom_u_metric_cylinder.F mom_u_metric_cylinder.F; fi
if [ ! -L mom_u_metric_sphere.F ]; then ln -s ../../../pkg/mom_fluxform/mom_u_metric_sphere.F mom_u_metric_sphere.F; fi
if [ ! -L mom_u_xviscflux.F ]; then ln -s ../../../pkg/mom_fluxform/mom_u_xviscflux.F mom_u_xviscflux.F; fi